Version 4
SHEET 1 3368 3520
WIRE 1760 -32 1760 -64
WIRE 624 -16 624 -80
WIRE 1760 64 1760 48
WIRE 1760 64 1616 64
WIRE 1808 64 1760 64
WIRE 624 80 624 64
WIRE 1808 96 1792 96
WIRE 1792 128 1792 96
WIRE 1808 128 1792 128
WIRE 1792 160 1792 128
WIRE 1792 160 1744 160
WIRE 1808 160 1792 160
WIRE 1808 192 1712 192
WIRE 64 256 64 224
WIRE 624 256 624 192
WIRE 1808 288 1792 288
WIRE 2048 288 2032 288
WIRE 1792 320 1792 288
WIRE 1808 320 1792 320
WIRE 2064 320 2032 320
WIRE 624 352 624 336
WIRE 1792 352 1792 320
WIRE 1808 352 1792 352
WIRE 2064 352 2032 352
WIRE 64 368 64 336
WIRE 144 368 64 368
WIRE 1792 384 1792 352
WIRE 1808 384 1792 384
WIRE 2064 384 2032 384
WIRE 64 400 64 368
WIRE -112 416 -112 336
WIRE 1792 416 1792 384
WIRE 144 448 144 368
WIRE -112 528 -112 496
WIRE 64 528 64 480
WIRE 2000 528 1968 528
WIRE 1616 544 1616 64
WIRE 1856 544 1616 544
WIRE 2000 560 1968 560
FLAG 64 224 +12
FLAG 64 528 -12
FLAG 144 448 0
FLAG -112 528 0
FLAG -112 336 vcc
FLAG 624 80 0
FLAG 624 -80 BCK
FLAG 624 352 0
FLAG 624 192 LRCLK
FLAG 2048 288 Q0
FLAG 2064 320 Q1
FLAG 2064 352 Q2
FLAG 2064 384 Q4
FLAG 1712 192 LRCLK
FLAG 1792 416 0
FLAG 1760 -64 vcc
FLAG 2000 528 Q0
FLAG 2000 560 Q1
FLAG 1744 160 Vcc
SYMBOL voltage 64 240 R0
SYMATTR InstName V1
SYMATTR Value 12
SYMBOL voltage 64 384 R0
SYMATTR InstName V2
SYMATTR Value 12
SYMBOL voltage -112 400 R0
SYMATTR InstName V4
SYMATTR Value 3.3
SYMBOL voltage 624 -32 R0
SYMATTR InstName V3
SYMATTR Value PULSE(0 3.3 20n 5n 5n 78.74n 157.5n)
SYMBOL voltage 624 240 R0
SYMATTR InstName V5
SYMATTR Value PULSE(0 3.3 20n 5n 5n 1889.6n 3779.3n)
SYMBOL res 1744 -48 R0
SYMATTR InstName R1
SYMATTR Value 2.2k
SYMBOL 74HC/74hc161 1920 -16 R0
SYMATTR InstName U1
SYMATTR SpiceLine VCC=3.3  SPEED=1.0  TRIPDT=1e-9
SYMBOL 74HC/74hc00 1920 480 M0
SYMATTR InstName U2
SYMATTR SpiceLine VCC=3.3  SPEED=1.0  TRIPDT=1e-9
TEXT -40 112 Left 2 !.tran 25u UIC
TEXT -32 80 Left 2 !.lib lm13700.sub
TEXT -32 40 Left 2 !.INCLUDE 74HC.lib
TEXT 528 424 Left 2 ;These are the I2S clock and left/right signals,\nfor six strings at 44.1kHz sample rate BCK will \nbe at about 6.35 MHz
